Version 4
SHEET 1 880 680
WIRE 0 -48 -176 -48
WIRE 416 0 400 0
WIRE 448 0 416 0
WIRE 560 0 544 0
WIRE 576 0 560 0
WIRE 0 32 0 -48
WIRE 144 32 0 32
WIRE 448 48 448 0
WIRE 576 48 576 0
WIRE -176 112 -176 -48
WIRE 144 112 144 32
WIRE 144 112 64 112
WIRE 144 128 144 112
WIRE 0 192 0 176
WIRE 64 192 48 192
WIRE 96 192 64 192
WIRE 720 208 720 192
WIRE 720 208 688 208
WIRE 144 224 144 208
WIRE -176 240 -176 192
WIRE -144 240 -176 240
WIRE 0 240 0 192
WIRE -32 256 -48 256
WIRE 576 256 368 256
WIRE 624 256 576 256
WIRE -144 272 -144 240
WIRE 64 272 32 272
WIRE 144 272 144 224
WIRE -32 288 -80 288
WIRE -80 304 -80 288
WIRE -80 304 -160 304
WIRE 144 320 144 304
WIRE -48 336 -48 256
WIRE -48 336 -80 336
WIRE 640 336 576 336
WIRE 688 336 688 304
WIRE 688 336 640 336
WIRE -80 384 -80 336
WIRE 304 384 256 384
WIRE 48 400 0 400
WIRE 144 400 144 352
WIRE 496 400 480 400
WIRE 512 400 496 400
WIRE 368 416 368 256
WIRE 480 432 480 400
WIRE 64 464 64 272
WIRE 64 464 48 464
WIRE 384 512 368 512
WIRE 480 512 384 512
WIRE 0 528 0 400
WIRE 384 528 384 512
WIRE 384 528 0 528
WIRE 304 560 304 464
WIRE 384 624 304 624
WIRE 416 624 384 624
WIRE 416 640 416 624
WIRE 416 640 304 640
FLAG -144 272 0
FLAG 144 400 0
FLAG 448 128 0
FLAG 576 128 0
FLAG 416 0 5V
FLAG 560 0 -12V
FLAG -160 384 0
FLAG -80 464 0
FLAG 0 304 0
FLAG 0 192 5V
FLAG 48 192 switch
FLAG 496 400 5V
FLAG 384 624 5V
FLAG 256 384 0
FLAG 640 336 -12V
FLAG 720 192 switch
SYMBOL voltage -176 96 R0
WINDOW 123 0 0 Left 2
WINDOW 39 0 0 Left 2
SYMATTR InstName V1
SYMATTR Value SINE(0 5 100)
SYMBOL res 128 256 R0
WINDOW 0 112 58 Left 2
SYMATTR InstName R1
SYMATTR Value 1000k
SYMBOL njf 96 128 R0
SYMATTR InstName J1
SYMBOL voltage 448 32 R0
WINDOW 123 0 0 Left 2
WINDOW 39 0 0 Left 2
SYMATTR InstName V2
SYMATTR Value 5V
SYMBOL voltage 576 32 R0
WINDOW 123 0 0 Left 2
WINDOW 39 0 0 Left 2
SYMATTR InstName V3
SYMATTR Value -12V
SYMBOL voltage -160 288 R0
WINDOW 123 0 0 Left 2
WINDOW 39 0 0 Left 2
SYMATTR InstName V4
SYMATTR Value PULSE(0 5 0 .000008 .000008 0 .000016)
SYMBOL voltage -80 368 R0
WINDOW 123 0 0 Left 2
WINDOW 39 0 0 Left 2
SYMATTR InstName V5
SYMATTR Value PULSE(0 5 0 .01 .01 0 .02)
SYMBOL Comparators\\LT1017 0 272 R0
SYMATTR InstName U1
SYMBOL pnp 304 416 R0
SYMATTR InstName Q1
SYMBOL res 464 416 R0
SYMATTR InstName R2
SYMATTR Value 4k
SYMBOL res 288 544 R0
SYMATTR InstName R3
SYMATTR Value 8k
SYMBOL res 288 368 R0
SYMATTR InstName R4
SYMATTR Value 1.6k
SYMBOL npn 624 208 R0
SYMATTR InstName Q2
SYMBOL res 560 240 R0
SYMATTR InstName R5
SYMATTR Value 8k
SYMBOL res 48 96 R0
SYMATTR InstName R6
SYMATTR Value 100k
SYMBOL diode 32 400 R0
SYMATTR InstName D1
TEXT -208 376 Left 2 !.tran .02
TEXT -128 456 Left 2 !;tran .02
